
Circuit: *ngspice script

Doing analysis at TEMP = 27.000000 and TNOM = 27.000000


No. of Data Rows : 1
Operating point analysis
op_TAB
@gb[i] = -2.92076e-04
@id[current] = 1.019408e-03
@r1[i] = 2.787154e-04
@r2[i] = 2.920757e-04
@r3[i] = -1.33603e-05
@r4[i] = -1.23752e-03
@r5[i] = -1.31148e-03
@r6[i] = 9.588061e-04
@r7[i] = 9.588061e-04
v(1) = 4.947829e+00
v(2) = 4.988084e+00
v(3) = 0.000000e+00
v(4) = 9.004000e+00
v(5) = -2.91655e+00
v(6) = 5.230611e+00
v(7) = 4.338957e+00
v(8) = -1.95296e+00
hc#branch = 6.060221e-05
v9#branch = 9.588061e-04
va#branch = -2.78715e-04
op_END
@gb[i] = -2.92076e-04
@id[current] = 1.019408e-03
@r1[i] = 2.787154e-04
@r2[i] = 2.920757e-04
@r3[i] = -1.33603e-05
@r4[i] = -1.23752e-03
@r5[i] = -1.31148e-03
@r6[i] = 9.588061e-04
@r7[i] = 9.588061e-04
v(1) = 4.947829e+00
v(2) = 4.988084e+00
v(3) = 0.000000e+00
v(4) = 9.004000e+00
v(5) = -2.91655e+00
v(6) = 5.230611e+00
v(7) = 4.338957e+00
v(8) = -1.95296e+00
hc#branch = 6.060221e-05
v9#branch = 9.588061e-04
va#branch = -2.78715e-04
ngspice-32 done
